# Cell structure file of CdSe #186

data_3D
_audit_creation_date            2012-08-08
_audit_creation_method          P_cif.py

_symmetry_space_group_name_H-M  'P1'
_symmetry_Int_Tables_number     1
_symmetry_cell_setting          triclinic

_cell_length_a                  4.29595
_cell_length_b                  4.29595
_cell_length_c                  7.01397
_cell_angle_alpha               90
_cell_angle_beta                90
_cell_angle_gamma               120

loop_
  _atom_site_label
  _atom_site_type_symbol
  _atom_site_fract_x
  _atom_site_fract_y
  _atom_site_fract_z
  _atom_site_U_iso_or_equiv
  _atom_site_adp_type
  _atom_site_occupancy
  Cd1   Cd     0.333400    0.666700    0.000000    0.018341 Uiso  1.0000
  Cd2   Cd     0.666600    0.333300    0.500000    0.018341 Uiso  1.0000
  Se1   Se     0.333400    0.666700    0.375000    0.025934 Uiso  1.0000
  Se2   Se     0.666600    0.333300    0.875000    0.025934 Uiso  1.0000
