# Zincblende Bulk

data_3D
_audit_creation_date            2012-08-08
_audit_creation_method          P_cif.py

_symmetry_space_group_name_H-M  'P1'
_symmetry_Int_Tables_number     1
_symmetry_cell_setting          triclinic

_cell_length_a                  6.1212
_cell_length_b                  6.1212
_cell_length_c                  6.1212
_cell_angle_alpha               90
_cell_angle_beta                90
_cell_angle_gamma               90

loop_
  _atom_site_label
  _atom_site_type_symbol
  _atom_site_fract_x
  _atom_site_fract_y
  _atom_site_fract_z
  _atom_site_U_iso_or_equiv
  _atom_site_adp_type
  _atom_site_occupancy
  Cd1   Cd     0.000000    0.000000    0.000000    0.022920 Uiso  1.0000
  Cd2   Cd     0.000000    0.500000    0.500000    0.022920 Uiso  1.0000
  Cd3   Cd     0.500000    0.000000    0.500000    0.022920 Uiso  1.0000
  Cd4   Cd     0.500000    0.500000    0.000000    0.022920 Uiso  1.0000
  Se1   Se     0.750000    0.750000    0.250000    0.018168 Uiso  1.0000
  Se2   Se     0.750000    0.250000    0.750000    0.018168 Uiso  1.0000
  Se3   Se     0.250000    0.750000    0.750000    0.018168 Uiso  1.0000
  Se4   Se     0.250000    0.250000    0.250000    0.018168 Uiso  1.0000
